#------------------------------------------------------------------
# Heading
#------------------------------------------------------------------
#
wipe
model basic -ndm 3 -ndf 6
#
#
#------------------------------------------------------------------
# Nodes
#------------------------------------------------------------------
#
node 1 0.500 3.500 0.000
node 2 4.500 1.000 0.000
node 3 2.000 4.000 0.000
node 4 0.000 2.000 0.000
node 5 4.500 4.000 0.000
node 6 5.000 2.500 0.000
node 7 1.500 4.000 0.000
node 8 3.000 4.000 0.000
node 9 1.500 3.500 0.000
node 10 4.000 4.500 0.000
node 11 1.000 2.500 0.000
node 12 0.500 1.500 0.000
node 13 0.500 2.500 0.000
node 14 5.000 3.000 0.000
node 15 5.000 0.500 0.000
node 16 1.500 2.000 0.000
node 17 0.500 4.000 0.000
node 18 1.500 1.500 0.000
node 19 3.500 4.000 0.000
node 20 2.000 0.500 0.000
# ... 97 like lines cut
#
#
#
#------------------------------------------------------------------
# Boundary conditions
#------------------------------------------------------------------
#
# disp_left
#----------
#
fix 4 1 1 1 0 0 0
fix 6 1 1 1 0 0 0
fix 14 1 1 1 0 0 0
fix 15 1 1 1 0 0 0
fix 24 1 1 1 0 0 0
fix 26 1 1 1 0 0 0
fix 27 1 1 1 0 0 0
fix 37 1 1 1 0 0 0
fix 38 1 1 1 0 0 0
fix 39 1 1 1 0 0 0
fix 40 1 1 1 0 0 0
fix 42 1 1 1 0 0 0
fix 45 1 1 1 0 0 0
fix 48 1 1 1 0 0 0
fix 52 1 1 1 0 0 0
fix 56 1 1 1 0 0 0
fix 57 1 1 1 0 0 0
fix 60 1 1 1 0 0 0
fix 62 1 1 1 0 0 0
fix 63 1 1 1 0 0 0
# ... 16 like lines cut
#
#
#
#------------------------------------------------------------------
# Materials
#------------------------------------------------------------------
#
# mat_elastic
#------------
#
uniaxialMaterial Elastic 1 20000000000
nDMaterial ElasticIsotropic 1001 20000000000 0.3 1500
#
#
#
#------------------------------------------------------------------
# Elements
#------------------------------------------------------------------
#
# ep
#---
#
geomTransf Corotational 1 0 -1 0
element elasticBeamColumn 1 92 46 0.007853981633974483 20000000000 7692307692.307692 9.817477042468105e-06 4.9087385212340526e-06 4.9087385212340526e-06 1
#
geomTransf Corotational 2 0 -1 0
element elasticBeamColumn 2 92 83 0.007853981633974483 20000000000 7692307692.307692 9.817477042468105e-06 4.9087385212340526e-06 4.9087385212340526e-06 2
#
geomTransf Corotational 3 0 -1 0
element elasticBeamColumn 3 82 76 0.007853981633974483 20000000000 7692307692.307692 9.817477042468105e-06 4.9087385212340526e-06 4.9087385212340526e-06 3
#
geomTransf Corotational 4 0 -1 0
element elasticBeamColumn 4 82 23 0.007853981633974483 20000000000 7692307692.307692 9.817477042468105e-06 4.9087385212340526e-06 4.9087385212340526e-06 4
#
geomTransf Corotational 5 0 -1 0
element elasticBeamColumn 5 47 53 0.007853981633974483 20000000000 7692307692.307692 9.817477042468105e-06 4.9087385212340526e-06 4.9087385212340526e-06 5
#
geomTransf Corotational 6 0 -1 0
element elasticBeamColumn 6 47 67 0.007853981633974483 20000000000 7692307692.307692 9.817477042468105e-06 4.9087385212340526e-06 4.9087385212340526e-06 6
#
geomTransf Corotational 7 0 -1 0
element elasticBeamColumn 7 77 20 0.007853981633974483 20000000000 7692307692.307692 9.817477042468105e-06 4.9087385212340526e-06 4.9087385212340526e-06 7
#
geomTransf Corotational 8 0 -1 0
element elasticBeamColumn 8 77 68 0.007853981633974483 20000000000 7692307692.307692 9.817477042468105e-06 4.9087385212340526e-06 4.9087385212340526e-06 8
#
geomTransf Corotational 9 0 -1 0
element elasticBeamColumn 9 67 115 0.007853981633974483 20000000000 7692307692.307692 9.817477042468105e-06 4.9087385212340526e-06 4.9087385212340526e-06 9
#
geomTransf Corotational 10 0 -1 0
element elasticBeamColumn 10 67 9 0.007853981633974483 20000000000 7692307692.307692 9.817477042468105e-06 4.9087385212340526e-06 4.9087385212340526e-06 10
#
geomTransf Corotational 11 0 -1 0
element elasticBeamColumn 11 17 115 0.007853981633974483 20000000000 7692307692.307692 9.817477042468105e-06 4.9087385212340526e-06 4.9087385212340526e-06 11
#
geomTransf Corotational 12 0 -1 0
element elasticBeamColumn 12 17 103 0.007853981633974483 20000000000 7692307692.307692 9.817477042468105e-06 4.9087385212340526e-06 4.9087385212340526e-06 12
#
geomTransf Corotational 13 0 -1 0
element elasticBeamColumn 13 27 77 0.007853981633974483 20000000000 7692307692.307692 9.817477042468105e-06 4.9087385212340526e-06 4.9087385212340526e-06 13
#
geomTransf Corotational 14 0 -1 0
element elasticBeamColumn 14 97 51 0.007853981633974483 20000000000 7692307692.307692 9.817477042468105e-06 4.9087385212340526e-06 4.9087385212340526e-06 14
#
geomTransf Corotational 15 0 -1 0
element elasticBeamColumn 15 97 93 0.007853981633974483 20000000000 7692307692.307692 9.817477042468105e-06 4.9087385212340526e-06 4.9087385212340526e-06 15
#
geomTransf Corotational 16 0 -1 0
element elasticBeamColumn 16 87 104 0.007853981633974483 20000000000 7692307692.307692 9.817477042468105e-06 4.9087385212340526e-06 4.9087385212340526e-06 16
#
geomTransf Corotational 17 0 -1 0
element elasticBeamColumn 17 87 92 0.007853981633974483 20000000000 7692307692.307692 9.817477042468105e-06 4.9087385212340526e-06 4.9087385212340526e-06 17
#
geomTransf Corotational 18 0 -1 0
element elasticBeamColumn 18 60 41 0.007853981633974483 20000000000 7692307692.307692 9.817477042468105e-06 4.9087385212340526e-06 4.9087385212340526e-06 18
#
geomTransf Corotational 19 0 -1 0
element elasticBeamColumn 19 50 112 0.007853981633974483 20000000000 7692307692.307692 9.817477042468105e-06 4.9087385212340526e-06 4.9087385212340526e-06 19
#
geomTransf Corotational 20 0 -1 0
element elasticBeamColumn 20 50 6 0.007853981633974483 20000000000 7692307692.307692 9.817477042468105e-06 4.9087385212340526e-06 4.9087385212340526e-06 20
# ... 481 like lines cut
#
#
#------------------------------------------------------------------
# Steps
#------------------------------------------------------------------
#
# step_load
#----------
#
timeSeries Constant 1 -factor 1.0
pattern Plain 1 1 -fact 1 {
#
# load_weights
#-------------
#
